GIC and TTC/GIC Solver and TTC/Line Data.csv
Line,From Bus,To Bus,Voltage (kV-LL),Length (miles),Resistance (ohm/phase),Series Capacitor
1,2,3,345,77.18,3.512,0
2,2,17,345,77.47,3.525,0
3,15,4,500,87.51,1.986,0
4,17,16,345,102.54,4.665,0
5,4,5,500,103.31,2.345,0
6,4,5,500,103.31,2.345,0
7,5,6,500,131.05,2.975,0
8,5,11,500,154.57,3.509,1
9,6,11,500,63.59,1.444,0
10,4,6,500,205.57,4.666,0
11,15,6,500,128.81,2.924,0
12,15,6,500,128.81,2.924,0
13,11,12,500,102.39,2.324,0
14,16,20,345,88.98,4.049,0
15,17,20,345,152.53,6.94,0